ProjectFiles/Mikilua/DSSfiles/PVgens-PE-PER-NEW100.dss
!Pending	and	Pending-Review	PV	genrators														
New	PVSystem.BB_258064_1_5	bus1=DEV_258183_131.1	Phases=1	kV=0.24	kVA=7.92	irradiance=1	Pmpp=9.9	kvar=0	kvarlimit=	3.4848	%cutin=0.1	%cutout=0.1	yearly=m3pvmult	
New	PVSystem.BB_258067_1_5	bus1=DEV_258084_73.1	Phases=1	kV=0.24	kVA=3.2	irradiance=1	Pmpp=4	kvar=0	kvarlimit=	1.408	%cutin=0.1	%cutout=0.1	yearly=m3pvmult	
New	PVSystem.BB_258080_1_14	bus1=DEV_258181_25.1	Phases=1	kV=0.24	kVA=5.848	irradiance=1	Pmpp=7.31	kvar=0	kvarlimit=	2.57312	%cutin=0.1	%cutout=0.1	yearly=m3pvmult	
New	PVSystem.BB_258824_1_1	bus1=DEV_258823_13.1	Phases=1	kV=0.24	kVA=4.8	irradiance=1	Pmpp=6	kvar=0	kvarlimit=	2.112	%cutin=0.1	%cutout=0.1	yearly=m3pvmult	
New	PVSystem.BB_258899_1_9	bus1=DEV_258885_20.1	Phases=1	kV=0.24	kVA=7.28	irradiance=1	Pmpp=9.1	kvar=0	kvarlimit=	3.2032	%cutin=0.1	%cutout=0.1	yearly=m3pvmult	
New	PVSystem.BB_259031_1_5	bus1=DEV_259145_42.1	Phases=1	kV=0.24	kVA=7.88	irradiance=1	Pmpp=9.85	kvar=0	kvarlimit=	3.4672	%cutin=0.1	%cutout=0.1	yearly=m3pvmult	
New	PVSystem.BB_259033_1_2	bus1=DEV_259034_136.1	Phases=1	kV=0.24	kVA=12.64	irradiance=1	Pmpp=15.8	kvar=0	kvarlimit=	5.5616	%cutin=0.1	%cutout=0.1	yearly=m3pvmult	
New	PVSystem.BB_259037_1_6	bus1=DEV_259038_80.1	Phases=1	kV=0.24	kVA=2.304	irradiance=1	Pmpp=2.88	kvar=0	kvarlimit=	1.01376	%cutin=0.1	%cutout=0.1	yearly=m3pvmult	
New	PVSystem.BB_259041_1_5	bus1=DEV_259153_49.1	Phases=1	kV=0.24	kVA=1.92	irradiance=1	Pmpp=2.4	kvar=0	kvarlimit=	0.8448	%cutin=0.1	%cutout=0.1	yearly=m3pvmult	
New	PVSystem.BB_259041_1_12	bus1=DEV_259153_26.1	Phases=1	kV=0.24	kVA=2.304	irradiance=1	Pmpp=2.88	kvar=0	kvarlimit=	1.01376	%cutin=0.1	%cutout=0.1	yearly=m3pvmult	
New	PVSystem.BB_259160_1_6	bus1=DEV_259161_80.1	Phases=1	kV=0.24	kVA=3.84	irradiance=1	Pmpp=4.8	kvar=0	kvarlimit=	1.6896	%cutin=0.1	%cutout=0.1	yearly=m3pvmult	
New	PVSystem.BB_259166_1_5	bus1=DEV_259168_42.1	Phases=1	kV=0.24	kVA=4.416	irradiance=1	Pmpp=5.52	kvar=0	kvarlimit=	1.94304	%cutin=0.1	%cutout=0.1	yearly=m3pvmult	
New	PVSystem.BB_259166_1_7	bus1=DEV_259168_44.1	Phases=1	kV=0.24	kVA=2.24	irradiance=1	Pmpp=2.8	kvar=0	kvarlimit=	0.9856	%cutin=0.1	%cutout=0.1	yearly=m3pvmult	
New	PVSystem.BB_259171_1_8	bus1=DEV_259172_70.1	Phases=1	kV=0.24	kVA=5.376	irradiance=1	Pmpp=6.72	kvar=0	kvarlimit=	2.36544	%cutin=0.1	%cutout=0.1	yearly=m3pvmult	
New	PVSystem.BB_259176_1_2	bus1=DEV_259178_136.1	Phases=1	kV=0.24	kVA=2.928	irradiance=1	Pmpp=3.66	kvar=0	kvarlimit=	1.28832	%cutin=0.1	%cutout=0.1	yearly=m3pvmult	
New	PVSystem.BB_263625_1_1	bus1=DEV_263913_18.1	Phases=1	kV=0.24	kVA=3.2	irradiance=1	Pmpp=4	kvar=0	kvarlimit=	1.408	%cutin=0.1	%cutout=0.1	yearly=m3pvmult	
New	PVSystem.BB_263625_1_8	bus1=DEV_263913_22.1	Phases=1	kV=0.24	kVA=4.88	irradiance=1	Pmpp=6.1	kvar=0	kvarlimit=	2.1472	%cutin=0.1	%cutout=0.1	yearly=m3pvmult	
New	PVSystem.BB_263629_1_1	bus1=DEV_263905_156.1	Phases=1	kV=0.24	kVA=6.104	irradiance=1	Pmpp=7.63	kvar=0	kvarlimit=	2.68576	%cutin=0.1	%cutout=0.1	yearly=m3pvmult	
New	PVSystem.BB_263629_1_4	bus1=DEV_263905_154.1	Phases=1	kV=0.24	kVA=3.24	irradiance=1	Pmpp=4.05	kvar=0	kvarlimit=	1.4256	%cutin=0.1	%cutout=0.1	yearly=m3pvmult	
New	PVSystem.BB_263786_1_8	bus1=DEV_263881_235.3	Phases=1	kV=0.24	kVA=4.8	irradiance=1	Pmpp=6	kvar=0	kvarlimit=	2.112	%cutin=0.1	%cutout=0.1	yearly=m3pvmult	
New	PVSystem.BB_263789_1_2	bus1=DEV_263879_147.3	Phases=1	kV=0.24	kVA=3.96	irradiance=1	Pmpp=4.95	kvar=0	kvarlimit=	1.7424	%cutin=0.1	%cutout=0.1	yearly=m3pvmult	
New	PVSystem.BB_263789_1_3	bus1=DEV_263879_145.3	Phases=1	kV=0.24	kVA=7.84	irradiance=1	Pmpp=9.8	kvar=0	kvarlimit=	3.4496	%cutin=0.1	%cutout=0.1	yearly=m3pvmult	
New	PVSystem.BB_263793_1_1	bus1=DEV_263717_775.1	Phases=1	kV=0.24	kVA=2.304	irradiance=1	Pmpp=2.88	kvar=0	kvarlimit=	1.01376	%cutin=0.1	%cutout=0.1	yearly=m3pvmult	
New	PVSystem.BB_263794_1_11	bus1=DEV_263903_258.1	Phases=1	kV=0.24	kVA=3.08	irradiance=1	Pmpp=3.85	kvar=0	kvarlimit=	1.3552	%cutin=0.1	%cutout=0.1	yearly=m3pvmult	
New	PVSystem.BB_263795_1_8	bus1=DEV_263907_143.1	Phases=1	kV=0.24	kVA=2.752	irradiance=1	Pmpp=3.44	kvar=0	kvarlimit=	1.21088	%cutin=0.1	%cutout=0.1	yearly=m3pvmult	
New	PVSystem.BB_263795_1_9	bus1=DEV_263907_251.1	Phases=1	kV=0.24	kVA=3.032	irradiance=1	Pmpp=3.79	kvar=0	kvarlimit=	1.33408	%cutin=0.1	%cutout=0.1	yearly=m3pvmult	
New	PVSystem.BB_263795_1_12	bus1=DEV_263907_254.1	Phases=1	kV=0.24	kVA=3.04	irradiance=1	Pmpp=3.8	kvar=0	kvarlimit=	1.3376	%cutin=0.1	%cutout=0.1	yearly=m3pvmult	
New	PVSystem.BB_263796_1_2	bus1=DEV_263720_246.2	Phases=1	kV=0.24	kVA=2.4	irradiance=1	Pmpp=3	kvar=0	kvarlimit=	1.056	%cutin=0.1	%cutout=0.1	yearly=m3pvmult	
New	PVSystem.BB_263796_1_9	bus1=DEV_263720_104.2	Phases=1	kV=0.24	kVA=7.28	irradiance=1	Pmpp=9.1	kvar=0	kvarlimit=	3.2032	%cutin=0.1	%cutout=0.1	yearly=m3pvmult	
New	PVSystem.BB_263800_1_1	bus1=DEV_263899_148.2	Phases=1	kV=0.24	kVA=7.28	irradiance=1	Pmpp=9.1	kvar=0	kvarlimit=	3.2032	%cutin=0.1	%cutout=0.1	yearly=m3pvmult	
New	PVSystem.BB_263800_1_4	bus1=DEV_263899_146.2	Phases=1	kV=0.24	kVA=4	irradiance=1	Pmpp=5	kvar=0	kvarlimit=	1.76	%cutin=0.1	%cutout=0.1	yearly=m3pvmult	
New	PVSystem.BB_263800_1_9	bus1=DEV_263899_251.2	Phases=1	kV=0.24	kVA=4.648	irradiance=1	Pmpp=5.81	kvar=0	kvarlimit=	2.04512	%cutin=0.1	%cutout=0.1	yearly=m3pvmult	
New	PVSystem.BB_263802_1_9	bus1=DEV_263871_136.3	Phases=1	kV=0.24	kVA=3.08	irradiance=1	Pmpp=3.85	kvar=0	kvarlimit=	1.3552	%cutin=0.1	%cutout=0.1	yearly=m3pvmult	
New	PVSystem.BB_263803_1_7	bus1=DEV_263680_21.3	Phases=1	kV=0.24	kVA=3.616	irradiance=1	Pmpp=4.52	kvar=0	kvarlimit=	1.59104	%cutin=0.1	%cutout=0.1	yearly=m3pvmult	
New	PVSystem.BB_263805_1_7	bus1=DEV_263875_128.3	Phases=1	kV=0.24	kVA=2.44	irradiance=1	Pmpp=3.05	kvar=0	kvarlimit=	1.0736	%cutin=0.1	%cutout=0.1	yearly=m3pvmult	
New	PVSystem.BB_263805_1_8	bus1=DEV_263875_127.3	Phases=1	kV=0.24	kVA=3.04	irradiance=1	Pmpp=3.8	kvar=0	kvarlimit=	1.3376	%cutin=0.1	%cutout=0.1	yearly=m3pvmult	
New	PVSystem.BB_263807_1_3	bus1=DEV_263867_145.3	Phases=1	kV=0.24	kVA=2.4	irradiance=1	Pmpp=3	kvar=0	kvarlimit=	1.056	%cutin=0.1	%cutout=0.1	yearly=m3pvmult	
New	PVSystem.BB_263808_1_2	bus1=DEV_263863_248.3	Phases=1	kV=0.24	kVA=4.8	irradiance=1	Pmpp=6	kvar=0	kvarlimit=	2.112	%cutin=0.1	%cutout=0.1	yearly=m3pvmult	
New	PVSystem.BB_263808_1_3	bus1=DEV_263863_250.3	Phases=1	kV=0.24	kVA=4.04	irradiance=1	Pmpp=5.05	kvar=0	kvarlimit=	1.7776	%cutin=0.1	%cutout=0.1	yearly=m3pvmult	
New	PVSystem.BB_263808_1_5	bus1=DEV_263863_140.3	Phases=1	kV=0.24	kVA=5.76	irradiance=1	Pmpp=7.2	kvar=0	kvarlimit=	2.5344	%cutin=0.1	%cutout=0.1	yearly=m3pvmult	
New	PVSystem.BB_264037_1_1	bus1=DEV_264038_1570.2	Phases=1	kV=0.24	kVA=2.44	irradiance=1	Pmpp=3.05	kvar=0	kvarlimit=	1.0736	%cutin=0.1	%cutout=0.1	yearly=m3pvmult	
New	PVSystem.BB_264037_1_3	bus1=DEV_264038_1563.2	Phases=1	kV=0.24	kVA=7.104	irradiance=1	Pmpp=8.88	kvar=0	kvarlimit=	3.12576	%cutin=0.1	%cutout=0.1	yearly=m3pvmult	
New	PVSystem.BB_264132_1_8	bus1=DEV_264131_1549.1	Phases=1	kV=0.24	kVA=3.04	irradiance=1	Pmpp=3.8	kvar=0	kvarlimit=	1.3376	%cutin=0.1	%cutout=0.1	yearly=m3pvmult	
New	PVSystem.BB_264132_1_12	bus1=DEV_264131_1579.1	Phases=1	kV=0.24	kVA=6.712	irradiance=1	Pmpp=8.39	kvar=0	kvarlimit=	2.95328	%cutin=0.1	%cutout=0.1	yearly=m3pvmult	
New	PVSystem.BB_51045964_1_2	bus1=DEV_51045966_12.3	Phases=1	kV=0.24	kVA=7.872	irradiance=1	Pmpp=9.84	kvar=0	kvarlimit=	3.46368	%cutin=0.1	%cutout=0.1	yearly=m3pvmult	
New	PVSystem.BB_51045964_1_5	bus1=DEV_51045966_16.3	Phases=1	kV=0.24	kVA=7.96	irradiance=1	Pmpp=9.95	kvar=0	kvarlimit=	3.5024	%cutin=0.1	%cutout=0.1	yearly=m3pvmult	
New	PVSystem.BB_51045964_1_6	bus1=DEV_51045966_17.3	Phases=1	kV=0.24	kVA=4.04	irradiance=1	Pmpp=5.05	kvar=0	kvarlimit=	1.7776	%cutin=0.1	%cutout=0.1	yearly=m3pvmult	
New	PVSystem.BB_51046044_1_2	bus1=DEV_51046046_12.3	Phases=1	kV=0.24	kVA=6.104	irradiance=1	Pmpp=7.63	kvar=0	kvarlimit=	2.68576	%cutin=0.1	%cutout=0.1	yearly=m3pvmult	
New	PVSystem.OH_257796_1_1	bus1=NODE_559690_153.3	Phases=1	kV=0.24	kVA=8	irradiance=1	Pmpp=10	kvar=0	kvarlimit=	3.52	%cutin=0.1	%cutout=0.1	yearly=m3pvmult	
New	PVSystem.OH_257806_1_2	bus1=DEV_257795_12.3	Phases=1	kV=0.24	kVA=6.192	irradiance=1	Pmpp=7.74	kvar=0	kvarlimit=	2.72448	%cutin=0.1	%cutout=0.1	yearly=m3pvmult	
New	PVSystem.OH_257806_1_5	bus1=DEV_257795_16.3	Phases=1	kV=0.24	kVA=2.4	irradiance=1	Pmpp=3	kvar=0	kvarlimit=	1.056	%cutin=0.1	%cutout=0.1	yearly=m3pvmult	
New	PVSystem.OH_257806_1_6	bus1=DEV_257795_17.3	Phases=1	kV=0.24	kVA=2.44	irradiance=1	Pmpp=3.05	kvar=0	kvarlimit=	1.0736	%cutin=0.1	%cutout=0.1	yearly=m3pvmult	
New	PVSystem.OH_257806_1_13	bus1=DEV_257795_24.3	Phases=1	kV=0.24	kVA=3.44	irradiance=1	Pmpp=4.3	kvar=0	kvarlimit=	1.5136	%cutin=0.1	%cutout=0.1	yearly=m3pvmult	
New	PVSystem.OH_257807_1_3	bus1=DEV_257565_36.3	Phases=1	kV=0.24	kVA=6.48	irradiance=1	Pmpp=8.1	kvar=0	kvarlimit=	2.8512	%cutin=0.1	%cutout=0.1	yearly=m3pvmult	
New	PVSystem.OH_257808_1_1	bus1=DEV_257809_137.3	Phases=1	kV=0.24	kVA=6.12	irradiance=1	Pmpp=7.65	kvar=0	kvarlimit=	2.6928	%cutin=0.1	%cutout=0.1	yearly=m3pvmult	
New	PVSystem.OH_257811_1_6	bus1=DEV_257810_74.3	Phases=1	kV=0.24	kVA=4.992	irradiance=1	Pmpp=6.24	kvar=0	kvarlimit=	2.19648	%cutin=0.1	%cutout=0.1	yearly=m3pvmult	
New	PVSystem.OH_262481_1_9	bus1=DEV_262518_1544.2	Phases=1	kV=0.24	kVA=5.68	irradiance=1	Pmpp=7.1	kvar=0	kvarlimit=	2.4992	%cutin=0.1	%cutout=0.1	yearly=m3pvmult	
New	PVSystem.OH_262486_1_7	bus1=DEV_262513_541.3	Phases=1	kV=0.24	kVA=10.352	irradiance=1	Pmpp=12.94	kvar=0	kvarlimit=	4.55488	%cutin=0.1	%cutout=0.1	yearly=m3pvmult	
New	PVSystem.OH_263539_1_2	bus1=DEV_263753_407.1	Phases=1	kV=0.24	kVA=6.104	irradiance=1	Pmpp=7.63	kvar=0	kvarlimit=	2.68576	%cutin=0.1	%cutout=0.1	yearly=m3pvmult	
New	PVSystem.OH_264008_1_1	bus1=DEV_264097_410.2	Phases=1	kV=0.24	kVA=2.408	irradiance=1	Pmpp=3.01	kvar=0	kvarlimit=	1.05952	%cutin=0.1	%cutout=0.1	yearly=m3pvmult	
New	PVSystem.OH_264008_1_2	bus1=DEV_264097_407.2	Phases=1	kV=0.24	kVA=4.304	irradiance=1	Pmpp=5.38	kvar=0	kvarlimit=	1.89376	%cutin=0.1	%cutout=0.1	yearly=m3pvmult	
New	PVSystem.OH_264009_1_8	bus1=DEV_264027_720.3	Phases=1	kV=0.24	kVA=4.8	irradiance=1	Pmpp=6	kvar=0	kvarlimit=	2.112	%cutin=0.1	%cutout=0.1	yearly=m3pvmult	
New	PVSystem.OH_264010_1_2	bus1=DEV_264032_1571.1	Phases=1	kV=0.24	kVA=2.88	irradiance=1	Pmpp=3.6	kvar=0	kvarlimit=	1.2672	%cutin=0.1	%cutout=0.1	yearly=m3pvmult	
New	PVSystem.OH_264056_1_1	bus1=DEV_264123_708.3	Phases=1	kV=0.24	kVA=1.152	irradiance=1	Pmpp=1.44	kvar=0	kvarlimit=	0.50688	%cutin=0.1	%cutout=0.1	yearly=m3pvmult	
New	PVSystem.OH_264056_1_5	bus1=DEV_264123_712.3	Phases=1	kV=0.24	kVA=5.76	irradiance=1	Pmpp=7.2	kvar=0	kvarlimit=	2.5344	%cutin=0.1	%cutout=0.1	yearly=m3pvmult	
New	PVSystem.OH_264056_1_7	bus1=DEV_264123_716.3	Phases=1	kV=0.24	kVA=3.456	irradiance=1	Pmpp=4.32	kvar=0	kvarlimit=	1.52064	%cutin=0.1	%cutout=0.1	yearly=m3pvmult	
New	PVSystem.OH_264057_1_3	bus1=DEV_264122_1327.3	Phases=1	kV=0.24	kVA=3.36	irradiance=1	Pmpp=4.2	kvar=0	kvarlimit=	1.4784	%cutin=0.1	%cutout=0.1	yearly=m3pvmult	
New	PVSystem.OH_264057_1_6	bus1=DEV_264122_1320.3	Phases=1	kV=0.24	kVA=2.4	irradiance=1	Pmpp=3	kvar=0	kvarlimit=	1.056	%cutin=0.1	%cutout=0.1	yearly=m3pvmult	
New	PVSystem.OH_264057_1_9	bus1=DEV_264122_1312.3	Phases=1	kV=0.24	kVA=10.88	irradiance=1	Pmpp=13.6	kvar=0	kvarlimit=	4.7872	%cutin=0.1	%cutout=0.1	yearly=m3pvmult	
New	PVSystem.OH_264058_1_1	bus1=DEV_264121_545.3	Phases=1	kV=0.24	kVA=2.928	irradiance=1	Pmpp=3.66	kvar=0	kvarlimit=	1.28832	%cutin=0.1	%cutout=0.1	yearly=m3pvmult	
New	PVSystem.OH_264058_1_5	bus1=DEV_264121_555.3	Phases=1	kV=0.24	kVA=1.72	irradiance=1	Pmpp=2.15	kvar=0	kvarlimit=	0.7568	%cutin=0.1	%cutout=0.1	yearly=m3pvmult	
New	PVSystem.OH_264059_1_4	bus1=DEV_264061_788.3	Phases=1	kV=0.24	kVA=11.2	irradiance=1	Pmpp=14	kvar=0	kvarlimit=	4.928	%cutin=0.1	%cutout=0.1	yearly=m3pvmult	
New	PVSystem.OH_264106_1_2	bus1=DEV_264128_367.2	Phases=1	kV=0.24	kVA=6.48	irradiance=1	Pmpp=8.1	kvar=0	kvarlimit=	2.8512	%cutin=0.1	%cutout=0.1	yearly=m3pvmult	
New	PVSystem.OH_264158_1_2	bus1=DEV_264155_425.2	Phases=1	kV=0.24	kVA=6.48	irradiance=1	Pmpp=8.1	kvar=0	kvarlimit=	2.8512	%cutin=0.1	%cutout=0.1	yearly=m3pvmult	
New	PVSystem.OH_264857_1_8	bus1=NODE_613075_406.2	Phases=1	kV=0.24	kVA=4.8	irradiance=1	Pmpp=6	kvar=0	kvarlimit=	2.112	%cutin=0.1	%cutout=0.1	yearly=m3pvmult	
New	PVSystem.OH_264870_1_1	bus1=DEV_264872_433.1	Phases=1	kV=0.24	kVA=5.568	irradiance=1	Pmpp=6.96	kvar=0	kvarlimit=	2.44992	%cutin=0.1	%cutout=0.1	yearly=m3pvmult	
New	PVSystem.OH_264870_1_3	bus1=DEV_264872_424.1	Phases=1	kV=0.24	kVA=1.896	irradiance=1	Pmpp=2.37	kvar=0	kvarlimit=	0.83424	%cutin=0.1	%cutout=0.1	yearly=m3pvmult	
New	PVSystem.OH_264870_1_12	bus1=DEV_264872_441.1	Phases=1	kV=0.24	kVA=3.44	irradiance=1	Pmpp=4.3	kvar=0	kvarlimit=	1.5136	%cutin=0.1	%cutout=0.1	yearly=m3pvmult	
New	PVSystem.OH_264874_1_5	bus1=DEV_264876_790.2	Phases=1	kV=0.24	kVA=1.552	irradiance=1	Pmpp=1.94	kvar=0	kvarlimit=	0.68288	%cutin=0.1	%cutout=0.1	yearly=m3pvmult	
New	PVSystem.OH_264880_1_5	bus1=DEV_264881_1326.1	Phases=1	kV=0.24	kVA=4.04	irradiance=1	Pmpp=5.05	kvar=0	kvarlimit=	1.7776	%cutin=0.1	%cutout=0.1	yearly=m3pvmult	
New	PVSystem.OH_264880_1_7	bus1=DEV_264881_1321.1	Phases=1	kV=0.24	kVA=3.072	irradiance=1	Pmpp=3.84	kvar=0	kvarlimit=	1.35168	%cutin=0.1	%cutout=0.1	yearly=m3pvmult	
New	PVSystem.OH_264883_1_4	bus1=DEV_264884_419.2	Phases=1	kV=0.24	kVA=7.4	irradiance=1	Pmpp=9.25	kvar=0	kvarlimit=	3.256	%cutin=0.1	%cutout=0.1	yearly=m3pvmult	
New	PVSystem.OH_264883_1_11	bus1=DEV_264884_460.2	Phases=1	kV=0.24	kVA=4	irradiance=1	Pmpp=5	kvar=0	kvarlimit=	1.76	%cutin=0.1	%cutout=0.1	yearly=m3pvmult	
New	PVSystem.OH_264887_1_8	bus1=DEV_264888_797.2	Phases=1	kV=0.24	kVA=4.88	irradiance=1	Pmpp=6.1	kvar=0	kvarlimit=	2.1472	%cutin=0.1	%cutout=0.1	yearly=m3pvmult	
New	PVSystem.OH_264889_1_2	bus1=DEV_264891_425.1	Phases=1	kV=0.24	kVA=5.76	irradiance=1	Pmpp=7.2	kvar=0	kvarlimit=	2.5344	%cutin=0.1	%cutout=0.1	yearly=m3pvmult	
New	PVSystem.OH_264889_1_5	bus1=DEV_264891_411.1	Phases=1	kV=0.24	kVA=14.4	irradiance=1	Pmpp=18	kvar=0	kvarlimit=	6.336	%cutin=0.1	%cutout=0.1	yearly=m3pvmult	
New	PVSystem.OH_264889_1_11	bus1=DEV_264891_460.1	Phases=1	kV=0.24	kVA=5.952	irradiance=1	Pmpp=7.44	kvar=0	kvarlimit=	2.61888	%cutin=0.1	%cutout=0.1	yearly=m3pvmult	
New	PVSystem.OH_264913_1_2	bus1=DEV_264915_1333.1	Phases=1	kV=0.24	kVA=4.8	irradiance=1	Pmpp=6	kvar=0	kvarlimit=	2.112	%cutin=0.1	%cutout=0.1	yearly=m3pvmult	
New	PVSystem.OH_264913_1_7	bus1=DEV_264915_1321.1	Phases=1	kV=0.24	kVA=4.8	irradiance=1	Pmpp=6	kvar=0	kvarlimit=	2.112	%cutin=0.1	%cutout=0.1	yearly=m3pvmult	
New	PVSystem.OH_264931_1_4	bus1=DEV_264932_1252.3	Phases=1	kV=0.24	kVA=6.48	irradiance=1	Pmpp=8.1	kvar=0	kvarlimit=	2.8512	%cutin=0.1	%cutout=0.1	yearly=m3pvmult	
New	PVSystem.OH_264953_1_4	bus1=DEV_264954_1564.1	Phases=1	kV=0.24	kVA=3.04	irradiance=1	Pmpp=3.8	kvar=0	kvarlimit=	1.3376	%cutin=0.1	%cutout=0.1	yearly=m3pvmult	
New	PVSystem.OH_261479_1_1	bus1=DEV_261481_1_1.1	Phases=1	kV=0.24	kVA=6.024	irradiance=1	Pmpp=7.53	kvar=0	kvarlimit=	2.65056	%cutin=0.1	%cutout=0.1	yearly=m3pvmult	
New	PVSystem.OH_261486_1_2	bus1=DEV_261487_1_2.1	Phases=1	kV=0.24	kVA=3.44	irradiance=1	Pmpp=4.3	kvar=0	kvarlimit=	1.5136	%cutin=0.1	%cutout=0.1	yearly=m3pvmult	
New	PVSystem.OH_261573_1_1	bus1=DEV_261608_1_1.2	Phases=1	kV=0.24	kVA=13.92	irradiance=1	Pmpp=17.4	kvar=0	kvarlimit=	6.1248	%cutin=0.1	%cutout=0.1	yearly=m3pvmult	
New	PVSystem.OH_261576_1_2	bus1=NODE_609861_1_2.1	Phases=1	kV=0.24	kVA=1.896	irradiance=1	Pmpp=2.37	kvar=0	kvarlimit=	0.83424	%cutin=0.1	%cutout=0.1	yearly=m3pvmult	
New	PVSystem.OH_261584_1_3	bus1=DEV_261585_1_3.1	Phases=1	kV=0.24	kVA=20.472	irradiance=1	Pmpp=25.59	kvar=0	kvarlimit=	9.00768	%cutin=0.1	%cutout=0.1	yearly=m3pvmult	
New	PVSystem.OH_261584_1_4	bus1=DEV_261585_1_4.1	Phases=1	kV=0.24	kVA=7.88	irradiance=1	Pmpp=9.85	kvar=0	kvarlimit=	3.4672	%cutin=0.1	%cutout=0.1	yearly=m3pvmult	
New	PVSystem.OH_261584_2_1	bus1=DEV_261585_2_1.3	Phases=1	kV=0.24	kVA=9.24	irradiance=1	Pmpp=11.55	kvar=0	kvarlimit=	4.0656	%cutin=0.1	%cutout=0.1	yearly=m3pvmult	
New	PVSystem.OH_261592_1_1	bus1=DEV_261610_1_1.1	Phases=1	kV=0.24	kVA=5.608	irradiance=1	Pmpp=7.01	kvar=0	kvarlimit=	2.46752	%cutin=0.1	%cutout=0.1	yearly=m3pvmult	
New	PVSystem.OH_261592_2_2	bus1=DEV_261610_2_2.3	Phases=1	kV=0.24	kVA=3.784	irradiance=1	Pmpp=4.73	kvar=0	kvarlimit=	1.66496	%cutin=0.1	%cutout=0.1	yearly=m3pvmult	
New	PVSystem.OH_261663_0_1	bus1=DEV_261702_0_1.1	Phases=1	kV=0.24	kVA=8	irradiance=1	Pmpp=10	kvar=0	kvarlimit=	3.52	%cutin=0.1	%cutout=0.1	yearly=m3pvmult	
New	PVSystem.OH_262868_0_1	bus1=NODE_11021952_0_1.1	Phases=1	kV=0.24	kVA=6.08	irradiance=1	Pmpp=7.6	kvar=0	kvarlimit=	2.6752	%cutin=0.1	%cutout=0.1	yearly=m3pvmult	
New	PVSystem.OH_262876_1_7	bus1=DEV_262877_1_7.1	Phases=1	kV=0.24	kVA=6.12	irradiance=1	Pmpp=7.65	kvar=0	kvarlimit=	2.6928	%cutin=0.1	%cutout=0.1	yearly=m3pvmult	
New	PVSystem.OH_262876_2_5	bus1=DEV_262877_2_5.3	Phases=1	kV=0.24	kVA=1.92	irradiance=1	Pmpp=2.4	kvar=0	kvarlimit=	0.8448	%cutin=0.1	%cutout=0.1	yearly=m3pvmult	
New	PVSystem.OH_262983_1_4	bus1=DEV_51163410_1_4.1	Phases=1	kV=0.24	kVA=7.912	irradiance=1	Pmpp=9.89	kvar=0	kvarlimit=	3.48128	%cutin=0.1	%cutout=0.1	yearly=m3pvmult	
New	PVSystem.OH_262987_2_2	bus1=NODE_31208075_2_2.3	Phases=1	kV=0.24	kVA=6.88	irradiance=1	Pmpp=8.6	kvar=0	kvarlimit=	3.0272	%cutin=0.1	%cutout=0.1	yearly=m3pvmult	
New	PVSystem.OH_262992_1_1	bus1=DEV_262993_1_1.1	Phases=1	kV=0.24	kVA=7.872	irradiance=1	Pmpp=9.84	kvar=0	kvarlimit=	3.46368	%cutin=0.1	%cutout=0.1	yearly=m3pvmult	
New	PVSystem.OH_263013_1_4	bus1=DEV_263015_1_4.1	Phases=1	kV=0.24	kVA=3.456	irradiance=1	Pmpp=4.32	kvar=0	kvarlimit=	1.52064	%cutin=0.1	%cutout=0.1	yearly=m3pvmult	
New	PVSystem.OH_263105_1_1	bus1=DEV_263108_1_1.2	Phases=1	kV=0.24	kVA=40.8	irradiance=1	Pmpp=51	kvar=0	kvarlimit=	17.952	%cutin=0.1	%cutout=0.1	yearly=m3pvmult	
New	PVSystem.OH_263105_1_2	bus1=DEV_263108_1_2.2	Phases=1	kV=0.24	kVA=4.04	irradiance=1	Pmpp=5.05	kvar=0	kvarlimit=	1.7776	%cutin=0.1	%cutout=0.1	yearly=m3pvmult	
New	PVSystem.OH_263105_2_2	bus1=DEV_263108_2_2.3	Phases=1	kV=0.24	kVA=4.8	irradiance=1	Pmpp=6	kvar=0	kvarlimit=	2.112	%cutin=0.1	%cutout=0.1	yearly=m3pvmult	
New	PVSystem.OH_263114_1_3	bus1=DEV_263116_1_3.1	Phases=1	kV=0.24	kVA=7.68	irradiance=1	Pmpp=9.6	kvar=0	kvarlimit=	3.3792	%cutin=0.1	%cutout=0.1	yearly=m3pvmult	
New	PVSystem.OH_263163_0_1	bus1=DEV_263265_0_1.2	Phases=1	kV=0.24	kVA=15.12	irradiance=1	Pmpp=18.9	kvar=0	kvarlimit=	6.6528	%cutin=0.1	%cutout=0.1	yearly=m3pvmult	
New	PVSystem.OH_263163_0_5	bus1=DEV_263265_0_5.2	Phases=1	kV=0.24	kVA=8.064	irradiance=1	Pmpp=10.08	kvar=0	kvarlimit=	3.54816	%cutin=0.1	%cutout=0.1	yearly=m3pvmult	
New	PVSystem.OH_263236_0_4	bus1=NODE_625300_0_4.3	Phases=1	kV=0.24	kVA=6.336	irradiance=1	Pmpp=7.92	kvar=0	kvarlimit=	2.78784	%cutin=0.1	%cutout=0.1	yearly=m3pvmult	
New	PVSystem.OH_263261_0_6	bus1=DEV_263263_0_6.2	Phases=1	kV=0.24	kVA=17.6	irradiance=1	Pmpp=22	kvar=0	kvarlimit=	7.744	%cutin=0.1	%cutout=0.1	yearly=m3pvmult	
New	PVSystem.OH_263400_0_1	bus1=DEV_263398_0_1.2	Phases=1	kV=0.24	kVA=4.992	irradiance=1	Pmpp=6.24	kvar=0	kvarlimit=	2.19648	%cutin=0.1	%cutout=0.1	yearly=m3pvmult	
New	PVSystem.OH_263400_0_10	bus1=DEV_263398_0_10.2	Phases=1	kV=0.24	kVA=7.872	irradiance=1	Pmpp=9.84	kvar=0	kvarlimit=	3.46368	%cutin=0.1	%cutout=0.1	yearly=m3pvmult	
New	PVSystem.OH_263400_0_16	bus1=DEV_263398_0_16.2	Phases=1	kV=0.24	kVA=6.536	irradiance=1	Pmpp=8.17	kvar=0	kvarlimit=	2.87584	%cutin=0.1	%cutout=0.1	yearly=m3pvmult	
New	PVSystem.OH_263619_0_2	bus1=DEV_263575_0_2.1	Phases=1	kV=0.24	kVA=9.12	irradiance=1	Pmpp=11.4	kvar=0	kvarlimit=	4.0128	%cutin=0.1	%cutout=0.1	yearly=m3pvmult	
New	PVSystem.OH_264402_1_1	bus1=DEV_264403_1_1.1	Phases=1	kV=0.24	kVA=19.2	irradiance=1	Pmpp=24	kvar=0	kvarlimit=	8.448	%cutin=0.1	%cutout=0.1	yearly=m3pvmult	
New	PVSystem.OH_264578_0_2	bus1=NODE_31186625_0_2.1	Phases=1	kV=0.24	kVA=9.24	irradiance=1	Pmpp=11.55	kvar=0	kvarlimit=	4.0656	%cutin=0.1	%cutout=0.1	yearly=m3pvmult	
New	PVSystem.OH_264611_1_5	bus1=DEV_264626_1_5.1	Phases=1	kV=0.24	kVA=8.6	irradiance=1	Pmpp=10.75	kvar=0	kvarlimit=	3.784	%cutin=0.1	%cutout=0.1	yearly=m3pvmult	
New	PVSystem.OH_264618_0_3	bus1=DEV_264632_0_3.2	Phases=1	kV=0.24	kVA=4.992	irradiance=1	Pmpp=6.24	kvar=0	kvarlimit=	2.19648	%cutin=0.1	%cutout=0.1	yearly=m3pvmult	
New	PVSystem.OH_264729_0_2	bus1=DEV_51074370_0_2.3	Phases=1	kV=0.24	kVA=6.912	irradiance=1	Pmpp=8.64	kvar=0	kvarlimit=	3.04128	%cutin=0.1	%cutout=0.1	yearly=m3pvmult	
New	PVSystem.OH_51048147a	bus1=DEV_51048144.1	Phases=1	kV=7.199557857	kVA=28.3	irradiance=1	Pmpp=34	kvar=0	kvarlimit=	12.452	%cutin=0.1	%cutout=0.1	yearly=m3pvmult	
New	PVSystem.OH_51048147b	bus1=DEV_51048144.2	Phases=1	kV=7.199557857	kVA=28.3	irradiance=1	Pmpp=34	kvar=0	kvarlimit=	12.452	%cutin=0.1	%cutout=0.1	yearly=m3pvmult	
New	PVSystem.OH_51048147c	bus1=DEV_51048144.3	Phases=1	kV=7.199557857	kVA=28.3	irradiance=1	Pmpp=34	kvar=0	kvarlimit=	12.452	%cutin=0.1	%cutout=0.1	yearly=m3pvmult	
New	PVSystem.BB_262469a	bus1=DEV_262470.3	Phases=1	kV=7.199557857	kVA=26.04	irradiance=1	Pmpp=32.55	kvar=0	kvarlimit=	11.4576	%cutin=0.1	%cutout=0.1	yearly=m3pvmult	
New	PVSystem.BB_263551a	bus1=DEV_263554.3	Phases=1	kV=7.199557857	kVA=49.92	irradiance=1	Pmpp=62.4	kvar=0	kvarlimit=	21.9648	%cutin=0.1	%cutout=0.1	yearly=m3pvmult	
New	PVSystem.BB_263552a	bus1=DEV_263557.3	Phases=1	kV=7.199557857	kVA=33.024	irradiance=1	Pmpp=41.28	kvar=0	kvarlimit=	14.53056	%cutin=0.1	%cutout=0.1	yearly=m3pvmult	
New	PVSystem.BB_263790a	bus1=DEV_263915.3	Phases=1	kV=7.199557857	kVA=25.728	irradiance=1	Pmpp=32.16	kvar=0	kvarlimit=	11.32032	%cutin=0.1	%cutout=0.1	yearly=m3pvmult	
New	PVSystem.BB_263791a	bus1=DEV_263919.3	Phases=1	kV=7.199557857	kVA=38.4	irradiance=1	Pmpp=48	kvar=0	kvarlimit=	16.896	%cutin=0.1	%cutout=0.1	yearly=m3pvmult	
New	PVSystem.BB_263792a	bus1=DEV_263556.3	Phases=1	kV=7.199557857	kVA=26.88	irradiance=1	Pmpp=33.6	kvar=0	kvarlimit=	11.8272	%cutin=0.1	%cutout=0.1	yearly=m3pvmult	
New	PVSystem.OH_263097b	bus1=DEV_263109.2	Phases=1	kV=7.199557857	kVA=19.2	irradiance=1	Pmpp=24	kvar=0	kvarlimit=	8.448	%cutin=0.1	%cutout=0.1	yearly=m3pvmult	
New	PVSystem.OH_263097c	bus1=DEV_263109.3	Phases=1	kV=7.199557857	kVA=3.24	irradiance=1	Pmpp=4.05	kvar=0	kvarlimit=	1.4256	%cutin=0.1	%cutout=0.1	yearly=m3pvmult	
New	PVSystem.OH_263106b	bus1=DEV_263107.2	Phases=1	kV=7.199557857	kVA=21.6	irradiance=1	Pmpp=27	kvar=0	kvarlimit=	9.504	%cutin=0.1	%cutout=0.1	yearly=m3pvmult	
New	PVSystem.OH_263615a	bus1=NODE_619182.1	Phases=1	kV=7.199557857	kVA=10.4	irradiance=1	Pmpp=13	kvar=0	kvarlimit=	4.576	%cutin=0.1	%cutout=0.1	yearly=m3pvmult	
New	PVSystem.OH_263615b	bus1=NODE_619182.2	Phases=1	kV=7.199557857	kVA=24.8	irradiance=1	Pmpp=31	kvar=0	kvarlimit=	10.912	%cutin=0.1	%cutout=0.1	yearly=m3pvmult	
New	PVSystem.OH_265122a	bus1=DEV_265154.1	Phases=1	kV=7.199557857	kVA=24.576	irradiance=1	Pmpp=30.72	kvar=0	kvarlimit=	10.81344	%cutin=0.1	%cutout=0.1	yearly=m3pvmult	
New	PVSystem.OH_265122b	bus1=DEV_265154.2	Phases=1	kV=7.199557857	kVA=18.24	irradiance=1	Pmpp=22.8	kvar=0	kvarlimit=	8.0256	%cutin=0.1	%cutout=0.1	yearly=m3pvmult	
New	PVSystem.OH_265122c	bus1=DEV_265154.3	Phases=1	kV=7.199557857	kVA=15.936	irradiance=1	Pmpp=19.92	kvar=0	kvarlimit=	7.01184	%cutin=0.1	%cutout=0.1	yearly=m3pvmult	
New	PVSystem.OH_51048142b	bus1=DEV_51048146.2	Phases=1	kV=7.199557857	kVA=21.6	irradiance=1	Pmpp=27	kvar=0	kvarlimit=	9.504	%cutin=0.1	%cutout=0.1	yearly=m3pvmult			
!PV	penetration	(as	a	function	of	planned	load	and	kvarlimit=		based	on	inverter	kVA	size)	is	44.47023399	%
!NEW	PV	genrators																
New	PVSystem.BB_258067_1_3	bus1=DEV_258084_54.1	Phases=1	kV=0.24	kVA=	5.514728857	irradiance=1	Pmpp=6.89341107072207	kvar=0	kvarlimit=	2.426480697	%cutin=0.1	%cutout=0.1	yearly=m3pvmult					
New	PVSystem.BB_258067_1_6	bus1=DEV_258084_74.1	Phases=1	kV=0.24	kVA=	5.156357173	irradiance=1	Pmpp=6.44544646608662	kvar=0	kvarlimit=	2.268797156	%cutin=0.1	%cutout=0.1	yearly=m3pvmult					
New	PVSystem.BB_258067_1_7	bus1=DEV_258084_50.1	Phases=1	kV=0.24	kVA=	5.260541001	irradiance=1	Pmpp=6.57567625125883	kvar=0	kvarlimit=	2.31463804	%cutin=0.1	%cutout=0.1	yearly=m3pvmult					
New	PVSystem.BB_258067_1_9	bus1=DEV_258084_76.1	Phases=1	kV=0.24	kVA=	5.561528825	irradiance=1	Pmpp=6.95191103110323	kvar=0	kvarlimit=	2.447072683	%cutin=0.1	%cutout=0.1	yearly=m3pvmult					
New	PVSystem.BB_258070_1_1	bus1=DEV_258185_112.1	Phases=1	kV=0.24	kVA=	7.912041153	irradiance=1	Pmpp=9.8900514413547	kvar=0	kvarlimit=	3.481298107	%cutin=0.1	%cutout=0.1	yearly=m3pvmult					
New	PVSystem.BB_258073_1_1	bus1=DEV_258195_112.1	Phases=1	kV=0.24	kVA=	6.513179857	irradiance=1	Pmpp=8.14147482148883	kvar=0	kvarlimit=	2.865799137	%cutin=0.1	%cutout=0.1	yearly=m3pvmult					
New	PVSystem.BB_258073_1_3	bus1=DEV_258195_110.1	Phases=1	kV=0.24	kVA=	6.168280677	irradiance=1	Pmpp=7.71035084619527	kvar=0	kvarlimit=	2.714043498	%cutin=0.1	%cutout=0.1	yearly=m3pvmult					
New	PVSystem.BB_258073_1_4	bus1=DEV_258195_48.1	Phases=1	kV=0.24	kVA=	5.570627269	irradiance=1	Pmpp=6.96328408677962	kvar=0	kvarlimit=	2.451075999	%cutin=0.1	%cutout=0.1	yearly=m3pvmult					
New	PVSystem.BB_258073_1_5	bus1=DEV_258195_49.1	Phases=1	kV=0.24	kVA=	6.015561739	irradiance=1	Pmpp=7.51945217349651	kvar=0	kvarlimit=	2.646847165	%cutin=0.1	%cutout=0.1	yearly=m3pvmult					
New	PVSystem.BB_258073_1_6	bus1=DEV_258195_111.1	Phases=1	kV=0.24	kVA=	6.315537916	irradiance=1	Pmpp=7.89442239484441	kvar=0	kvarlimit=	2.778836683	%cutin=0.1	%cutout=0.1	yearly=m3pvmult					
New	PVSystem.BB_258073_1_7	bus1=DEV_258195_113.1	Phases=1	kV=0.24	kVA=	6.288895897	irradiance=1	Pmpp=7.86111987177481	kvar=0	kvarlimit=	2.767114195	%cutin=0.1	%cutout=0.1	yearly=m3pvmult					
New	PVSystem.BB_258073_1_8	bus1=DEV_258195_114.1	Phases=1	kV=0.24	kVA=	6.160542943	irradiance=1	Pmpp=7.70067867872658	kvar=0	kvarlimit=	2.710638895	%cutin=0.1	%cutout=0.1	yearly=m3pvmult					
New	PVSystem.BB_258073_1_9	bus1=DEV_258195_115.1	Phases=1	kV=0.24	kVA=	6.481976093	irradiance=1	Pmpp=8.10247011577069	kvar=0	kvarlimit=	2.852069481	%cutin=0.1	%cutout=0.1	yearly=m3pvmult					
New	PVSystem.BB_258073_1_10	bus1=DEV_258195_116.1	Phases=1	kV=0.24	kVA=	6.528849165	irradiance=1	Pmpp=8.16106145663382	kvar=0	kvarlimit=	2.872693633	%cutin=0.1	%cutout=0.1	yearly=m3pvmult					
New	PVSystem.BB_258077_1_4	bus1=DEV_258191_53.1	Phases=1	kV=0.24	kVA=	9.011195668	irradiance=1	Pmpp=11.2639945853911	kvar=0	kvarlimit=	3.964926094	%cutin=0.1	%cutout=0.1	yearly=m3pvmult					
New	PVSystem.BB_258080_1_1	bus1=DEV_258181_13.1	Phases=1	kV=0.24	kVA=	7.255174917	irradiance=1	Pmpp=9.06896864683237	kvar=0	kvarlimit=	3.192276964	%cutin=0.1	%cutout=0.1	yearly=m3pvmult					
New	PVSystem.BB_258080_1_7	bus1=DEV_258181_18.1	Phases=1	kV=0.24	kVA=	8.071594904	irradiance=1	Pmpp=10.0894936298611	kvar=0	kvarlimit=	3.551501758	%cutin=0.1	%cutout=0.1	yearly=m3pvmult					
New	PVSystem.BB_258080_1_10	bus1=DEV_258181_21.1	Phases=1	kV=0.24	kVA=	7.250388499	irradiance=1	Pmpp=9.06298562420546	kvar=0	kvarlimit=	3.19017094	%cutin=0.1	%cutout=0.1	yearly=m3pvmult					
New	PVSystem.BB_258202_1_1	bus1=DEV_258211_13.1	Phases=1	kV=0.24	kVA=	26.79699641	irradiance=1	Pmpp=33.49624551718	kvar=0	kvarlimit=	11.79067842	%cutin=0.1	%cutout=0.1	yearly=m3pvmult					
New	PVSystem.BB_258202_1_2	bus1=DEV_258211_12.1	Phases=1	kV=0.24	kVA=	28.34771397	irradiance=1	Pmpp=35.4346424635912	kvar=0	kvarlimit=	12.47299415	%cutin=0.1	%cutout=0.1	yearly=m3pvmult					
New	PVSystem.BB_258797_1_1	bus1=DEV_258894_13.1	Phases=1	kV=0.24	kVA=	6.559186436	irradiance=1	Pmpp=8.19898304560923	kvar=0	kvarlimit=	2.886042032	%cutin=0.1	%cutout=0.1	yearly=m3pvmult					
New	PVSystem.BB_258797_1_2	bus1=DEV_258894_12.1	Phases=1	kV=0.24	kVA=	5.743808601	irradiance=1	Pmpp=7.17976075111698	kvar=0	kvarlimit=	2.527275784	%cutin=0.1	%cutout=0.1	yearly=m3pvmult					
New	PVSystem.BB_258797_1_5	bus1=DEV_258894_16.1	Phases=1	kV=0.24	kVA=	6.041601923	irradiance=1	Pmpp=7.55200240331864	kvar=0	kvarlimit=	2.658304846	%cutin=0.1	%cutout=0.1	yearly=m3pvmult					
New	PVSystem.BB_258803_1_5	bus1=DEV_258887_16.1	Phases=1	kV=0.24	kVA=	6.584226567	irradiance=1	Pmpp=8.23028320857438	kvar=0	kvarlimit=	2.897059689	%cutin=0.1	%cutout=0.1	yearly=m3pvmult					
New	PVSystem.BB_258803_1_6	bus1=DEV_258887_17.1	Phases=1	kV=0.24	kVA=	7.188192406	irradiance=1	Pmpp=8.98524050689308	kvar=0	kvarlimit=	3.162804658	%cutin=0.1	%cutout=0.1	yearly=m3pvmult					
New	PVSystem.BB_258803_1_8	bus1=DEV_258887_19.1	Phases=1	kV=0.24	kVA=	6.996451387	irradiance=1	Pmpp=8.74556423370039	kvar=0	kvarlimit=	3.07843861	%cutin=0.1	%cutout=0.1	yearly=m3pvmult					
New	PVSystem.BB_258803_1_9	bus1=DEV_258887_20.1	Phases=1	kV=0.24	kVA=	6.516628097	irradiance=1	Pmpp=8.14578512143884	kvar=0	kvarlimit=	2.867316363	%cutin=0.1	%cutout=0.1	yearly=m3pvmult					
New	PVSystem.BB_258803_1_10	bus1=DEV_258887_21.1	Phases=1	kV=0.24	kVA=	7.788035561	irradiance=1	Pmpp=9.73504445152992	kvar=0	kvarlimit=	3.426735647	%cutin=0.1	%cutout=0.1	yearly=m3pvmult					
New	PVSystem.BB_258803_1_11	bus1=DEV_258887_22.1	Phases=1	kV=0.24	kVA=	7.475202737	irradiance=1	Pmpp=9.34400342151071	kvar=0	kvarlimit=	3.289089204	%cutin=0.1	%cutout=0.1	yearly=m3pvmult					
New	PVSystem.BB_258803_1_12	bus1=DEV_258887_23.1	Phases=1	kV=0.24	kVA=	7.751172879	irradiance=1	Pmpp=9.68896609827569	kvar=0	kvarlimit=	3.410516067	%cutin=0.1	%cutout=0.1	yearly=m3pvmult					
New	PVSystem.BB_258824_1_7	bus1=DEV_258823_18.1	Phases=1	kV=0.24	kVA=	5.961828451	irradiance=1	Pmpp=7.45228556425991	kvar=0	kvarlimit=	2.623204519	%cutin=0.1	%cutout=0.1	yearly=m3pvmult					
New	PVSystem.BB_258838_1_8	bus1=DEV_258897_19.1	Phases=1	kV=0.24	kVA=	5.622276676	irradiance=1	Pmpp=7.02784584488942	kvar=0	kvarlimit=	2.473801737	%cutin=0.1	%cutout=0.1	yearly=m3pvmult					
New	PVSystem.BB_258838_1_10	bus1=DEV_258897_21.1	Phases=1	kV=0.24	kVA=	6.414089118	irradiance=1	Pmpp=8.01761139690928	kvar=0	kvarlimit=	2.822199212	%cutin=0.1	%cutout=0.1	yearly=m3pvmult					
New	PVSystem.BB_258899_1_2	bus1=DEV_258885_12.1	Phases=1	kV=0.24	kVA=	7.78218754	irradiance=1	Pmpp=9.72773442544357	kvar=0	kvarlimit=	3.424162518	%cutin=0.1	%cutout=0.1	yearly=m3pvmult					
New	PVSystem.BB_258899_1_8	bus1=DEV_258885_19.1	Phases=1	kV=0.24	kVA=	6.380537056	irradiance=1	Pmpp=7.97567131992012	kvar=0	kvarlimit=	2.807436305	%cutin=0.1	%cutout=0.1	yearly=m3pvmult					
New	PVSystem.BB_259031_1_1	bus1=DEV_259145_31.1	Phases=1	kV=0.24	kVA=	7.602420148	irradiance=1	Pmpp=9.50302518507456	kvar=0	kvarlimit=	3.345064865	%cutin=0.1	%cutout=0.1	yearly=m3pvmult					
New	PVSystem.BB_259031_1_4	bus1=DEV_259145_32.1	Phases=1	kV=0.24	kVA=	7.160168578	irradiance=1	Pmpp=8.95021072238591	kvar=0	kvarlimit=	3.150474174	%cutin=0.1	%cutout=0.1	yearly=m3pvmult					
New	PVSystem.BB_259031_1_7	bus1=DEV_259145_44.1	Phases=1	kV=0.24	kVA=	6.413189594	irradiance=1	Pmpp=8.01648699187885	kvar=0	kvarlimit=	2.821803421	%cutin=0.1	%cutout=0.1	yearly=m3pvmult					
New	PVSystem.BB_259031_1_8	bus1=DEV_259145_45.1	Phases=1	kV=0.24	kVA=	7.41579905	irradiance=1	Pmpp=9.26974881237545	kvar=0	kvarlimit=	3.262951582	%cutin=0.1	%cutout=0.1	yearly=m3pvmult					
New	PVSystem.BB_259031_1_9	bus1=DEV_259145_29.1	Phases=1	kV=0.24	kVA=	6.43806958	irradiance=1	Pmpp=8.04758697496238	kvar=0	kvarlimit=	2.832750615	%cutin=0.1	%cutout=0.1	yearly=m3pvmult					
New	PVSystem.BB_259031_1_10	bus1=DEV_259145_28.1	Phases=1	kV=0.24	kVA=	7.043578659	irradiance=1	Pmpp=8.80447332423581	kvar=0	kvarlimit=	3.09917461	%cutin=0.1	%cutout=0.1	yearly=m3pvmult					
New	PVSystem.BB_259033_1_6	bus1=DEV_259034_132.1	Phases=1	kV=0.24	kVA=	11.86443187	irradiance=1	Pmpp=14.8305398427441	kvar=0	kvarlimit=	5.220350025	%cutin=0.1	%cutout=0.1	yearly=m3pvmult					
New	PVSystem.BB_259033_1_8	bus1=DEV_259034_135.1	Phases=1	kV=0.24	kVA=	11.76260248	irradiance=1	Pmpp=14.7032530943956	kvar=0	kvarlimit=	5.175545089	%cutin=0.1	%cutout=0.1	yearly=m3pvmult					
New	PVSystem.BB_259037_1_1	bus1=DEV_259038_108.1	Phases=1	kV=0.24	kVA=	6.286237253	irradiance=1	Pmpp=7.85779656595564	kvar=0	kvarlimit=	2.765944391	%cutin=0.1	%cutout=0.1	yearly=m3pvmult					
New	PVSystem.BB_259037_1_2	bus1=DEV_259038_107.1	Phases=1	kV=0.24	kVA=	5.796529541	irradiance=1	Pmpp=7.245661926547	kvar=0	kvarlimit=	2.550472998	%cutin=0.1	%cutout=0.1	yearly=m3pvmult					
New	PVSystem.BB_259037_1_8	bus1=DEV_259038_81.1	Phases=1	kV=0.24	kVA=	5.608266188	irradiance=1	Pmpp=7.01033273558947	kvar=0	kvarlimit=	2.467637123	%cutin=0.1	%cutout=0.1	yearly=m3pvmult					
New	PVSystem.BB_259037_1_11	bus1=DEV_259038_105.1	Phases=1	kV=0.24	kVA=	6.075425262	irradiance=1	Pmpp=7.59428157772906	kvar=0	kvarlimit=	2.673187115	%cutin=0.1	%cutout=0.1	yearly=m3pvmult					
New	PVSystem.BB_259037_1_13	bus1=DEV_259038_84.1	Phases=1	kV=0.24	kVA=	5.717785203	irradiance=1	Pmpp=7.14723150421515	kvar=0	kvarlimit=	2.515825489	%cutin=0.1	%cutout=0.1	yearly=m3pvmult					
New	PVSystem.BB_259041_1_1	bus1=DEV_259153_112.1	Phases=1	kV=0.24	kVA=	5.601323186	irradiance=1	Pmpp=7.00165398195677	kvar=0	kvarlimit=	2.464582202	%cutin=0.1	%cutout=0.1	yearly=m3pvmult					
New	PVSystem.BB_259160_1_1	bus1=DEV_259161_108.1	Phases=1	kV=0.24	kVA=	6.920743912	irradiance=1	Pmpp=8.65092988965077	kvar=0	kvarlimit=	3.045127321	%cutin=0.1	%cutout=0.1	yearly=m3pvmult					
New	PVSystem.BB_259160_1_3	bus1=DEV_259161_77.1	Phases=1	kV=0.24	kVA=	6.852124213	irradiance=1	Pmpp=8.56515526615837	kvar=0	kvarlimit=	3.014934654	%cutin=0.1	%cutout=0.1	yearly=m3pvmult					
New	PVSystem.BB_259160_1_4	bus1=DEV_259161_78.1	Phases=1	kV=0.24	kVA=	7.205933887	irradiance=1	Pmpp=9.00741735863329	kvar=0	kvarlimit=	3.17061091	%cutin=0.1	%cutout=0.1	yearly=m3pvmult					
New	PVSystem.BB_259160_1_7	bus1=DEV_259161_83.1	Phases=1	kV=0.24	kVA=	7.020287159	irradiance=1	Pmpp=8.7753589482488	kvar=0	kvarlimit=	3.08892635	%cutin=0.1	%cutout=0.1	yearly=m3pvmult					
New	PVSystem.BB_259160_1_9	bus1=DEV_259161_82.1	Phases=1	kV=0.24	kVA=	5.969689948	irradiance=1	Pmpp=7.46211243520924	kvar=0	kvarlimit=	2.626663577	%cutin=0.1	%cutout=0.1	yearly=m3pvmult					
New	PVSystem.BB_259160_1_12	bus1=DEV_259161_104.1	Phases=1	kV=0.24	kVA=	6.600646203	irradiance=1	Pmpp=8.25080775329974	kvar=0	kvarlimit=	2.904284329	%cutin=0.1	%cutout=0.1	yearly=m3pvmult					
New	PVSystem.BB_259160_1_13	bus1=DEV_259161_84.1	Phases=1	kV=0.24	kVA=	5.944960947	irradiance=1	Pmpp=7.4312011840764	kvar=0	kvarlimit=	2.615782817	%cutin=0.1	%cutout=0.1	yearly=m3pvmult					
New	PVSystem.BB_259160_1_14	bus1=DEV_259161_85.1	Phases=1	kV=0.24	kVA=	7.083088375	irradiance=1	Pmpp=8.85386046830855	kvar=0	kvarlimit=	3.116558885	%cutin=0.1	%cutout=0.1	yearly=m3pvmult					
New	PVSystem.BB_259166_1_1	bus1=DEV_259168_31.1	Phases=1	kV=0.24	kVA=	6.006775418	irradiance=1	Pmpp=7.50846927189304	kvar=0	kvarlimit=	2.642981184	%cutin=0.1	%cutout=0.1	yearly=m3pvmult					
New	PVSystem.BB_259171_1_1	bus1=DEV_259172_56.1	Phases=1	kV=0.24	kVA=	8.671869977	irradiance=1	Pmpp=10.8398374707442	kvar=0	kvarlimit=	3.81562279	%cutin=0.1	%cutout=0.1	yearly=m3pvmult					
New	PVSystem.BB_259171_1_2	bus1=DEV_259172_55.1	Phases=1	kV=0.24	kVA=	7.966912117	irradiance=1	Pmpp=9.95864014644323	kvar=0	kvarlimit=	3.505441332	%cutin=0.1	%cutout=0.1	yearly=m3pvmult					
New	PVSystem.BB_259171_1_4	bus1=DEV_259172_57.1	Phases=1	kV=0.24	kVA=	7.933190163	irradiance=1	Pmpp=9.91648770373873	kvar=0	kvarlimit=	3.490603672	%cutin=0.1	%cutout=0.1	yearly=m3pvmult					
New	PVSystem.BB_259171_1_7	bus1=DEV_259172_69.1	Phases=1	kV=0.24	kVA=	7.943627676	irradiance=1	Pmpp=9.92953459462623	kvar=0	kvarlimit=	3.495196177	%cutin=0.1	%cutout=0.1	yearly=m3pvmult					
New	PVSystem.BB_259176_1_4	bus1=DEV_259178_138.1	Phases=1	kV=0.24	kVA=	9.65253114	irradiance=1	Pmpp=12.0656639249799	kvar=0	kvarlimit=	4.247113702	%cutin=0.1	%cutout=0.1	yearly=m3pvmult					
New	PVSystem.BB_259176_1_6	bus1=DEV_259178_132.1	Phases=1	kV=0.24	kVA=	9.808449159	irradiance=1	Pmpp=12.2605614490063	kvar=0	kvarlimit=	4.31571763	%cutin=0.1	%cutout=0.1	yearly=m3pvmult					
New	PVSystem.BB_259176_1_8	bus1=DEV_259178_135.1	Phases=1	kV=0.24	kVA=	8.637758597	irradiance=1	Pmpp=10.7971982467375	kvar=0	kvarlimit=	3.800613783	%cutin=0.1	%cutout=0.1	yearly=m3pvmult					
New	PVSystem.BB_263625_1_2	bus1=DEV_263913_19.1	Phases=1	kV=0.24	kVA=	6.744633646	irradiance=1	Pmpp=8.43079205753433	kvar=0	kvarlimit=	2.967638804	%cutin=0.1	%cutout=0.1	yearly=m3pvmult					
New	PVSystem.BB_263625_1_4	bus1=DEV_263913_30.1	Phases=1	kV=0.24	kVA=	6.835611679	irradiance=1	Pmpp=8.54451459861811	kvar=0	kvarlimit=	3.007669139	%cutin=0.1	%cutout=0.1	yearly=m3pvmult					
New	PVSystem.BB_263625_1_11	bus1=DEV_263913_24.1	Phases=1	kV=0.24	kVA=	6.376552485	irradiance=1	Pmpp=7.97069060569637	kvar=0	kvarlimit=	2.805683093	%cutin=0.1	%cutout=0.1	yearly=m3pvmult					
New	PVSystem.BB_263629_1_2	bus1=DEV_263905_155.1	Phases=1	kV=0.24	kVA=	6.777958573	irradiance=1	Pmpp=8.47244821577497	kvar=0	kvarlimit=	2.982301772	%cutin=0.1	%cutout=0.1	yearly=m3pvmult					
New	PVSystem.BB_263629_1_6	bus1=DEV_263905_151.1	Phases=1	kV=0.24	kVA=	6.20019731	irradiance=1	Pmpp=7.75024663743108	kvar=0	kvarlimit=	2.728086816	%cutin=0.1	%cutout=0.1	yearly=m3pvmult					
New	PVSystem.BB_263629_1_7	bus1=DEV_263905_149.1	Phases=1	kV=0.24	kVA=	6.54221758	irradiance=1	Pmpp=8.17777197488473	kvar=0	kvarlimit=	2.878575735	%cutin=0.1	%cutout=0.1	yearly=m3pvmult					
New	PVSystem.BB_263629_1_9	bus1=DEV_263905_255.1	Phases=1	kV=0.24	kVA=	5.423220037	irradiance=1	Pmpp=6.77902504632778	kvar=0	kvarlimit=	2.386216816	%cutin=0.1	%cutout=0.1	yearly=m3pvmult					
New	PVSystem.BB_263629_1_11	bus1=DEV_263905_258.1	Phases=1	kV=0.24	kVA=	5.999500181	irradiance=1	Pmpp=7.49937522640644	kvar=0	kvarlimit=	2.63978008	%cutin=0.1	%cutout=0.1	yearly=m3pvmult					
New	PVSystem.BB_263786_1_1	bus1=DEV_263881_237.3	Phases=1	kV=0.24	kVA=	6.776535406	irradiance=1	Pmpp=8.47066925802878	kvar=0	kvarlimit=	2.981675579	%cutin=0.1	%cutout=0.1	yearly=m3pvmult					
New	PVSystem.BB_263786_1_2	bus1=DEV_263881_238.3	Phases=1	kV=0.24	kVA=	6.792150312	irradiance=1	Pmpp=8.49018789023846	kvar=0	kvarlimit=	2.988546137	%cutin=0.1	%cutout=0.1	yearly=m3pvmult					
New	PVSystem.BB_263786_1_5	bus1=DEV_263881_207.3	Phases=1	kV=0.24	kVA=	5.838565495	irradiance=1	Pmpp=7.29820686834889	kvar=0	kvarlimit=	2.568968818	%cutin=0.1	%cutout=0.1	yearly=m3pvmult					
New	PVSystem.BB_263786_1_9	bus1=DEV_263881_236.3	Phases=1	kV=0.24	kVA=	6.728128627	irradiance=1	Pmpp=8.41016078396732	kvar=0	kvarlimit=	2.960376596	%cutin=0.1	%cutout=0.1	yearly=m3pvmult					
New	PVSystem.BB_263786_1_10	bus1=DEV_263881_239.3	Phases=1	kV=0.24	kVA=	6.549023141	irradiance=1	Pmpp=8.18627892615182	kvar=0	kvarlimit=	2.881570182	%cutin=0.1	%cutout=0.1	yearly=m3pvmult					
New	PVSystem.BB_263786_1_12	bus1=DEV_263881_206.3	Phases=1	kV=0.24	kVA=	6.411587534	irradiance=1	Pmpp=8.01448441709283	kvar=0	kvarlimit=	2.821098515	%cutin=0.1	%cutout=0.1	yearly=m3pvmult					
New	PVSystem.BB_263787_1_1	bus1=DEV_263883_247.3	Phases=1	kV=0.24	kVA=	7.309426006	irradiance=1	Pmpp=9.13678250724042	kvar=0	kvarlimit=	3.216147443	%cutin=0.1	%cutout=0.1	yearly=m3pvmult					
New	PVSystem.BB_263787_1_2	bus1=DEV_263883_248.3	Phases=1	kV=0.24	kVA=	7.120667564	irradiance=1	Pmpp=8.9008344552921	kvar=0	kvarlimit=	3.133093728	%cutin=0.1	%cutout=0.1	yearly=m3pvmult					
New	PVSystem.BB_263787_1_4	bus1=DEV_263883_249.3	Phases=1	kV=0.24	kVA=	5.946054607	irradiance=1	Pmpp=7.43256825825967	kvar=0	kvarlimit=	2.616264027	%cutin=0.1	%cutout=0.1	yearly=m3pvmult					
New	PVSystem.BB_263787_1_5	bus1=DEV_263883_140.3	Phases=1	kV=0.24	kVA=	6.698716826	irradiance=1	Pmpp=8.37339603280063	kvar=0	kvarlimit=	2.947435404	%cutin=0.1	%cutout=0.1	yearly=m3pvmult					
New	PVSystem.BB_263787_1_6	bus1=DEV_263883_139.3	Phases=1	kV=0.24	kVA=	6.349878401	irradiance=1	Pmpp=7.93734800098757	kvar=0	kvarlimit=	2.793946496	%cutin=0.1	%cutout=0.1	yearly=m3pvmult					
New	PVSystem.BB_263787_1_10	bus1=DEV_263883_135.3	Phases=1	kV=0.24	kVA=	7.19732555	irradiance=1	Pmpp=8.99665693759079	kvar=0	kvarlimit=	3.166823242	%cutin=0.1	%cutout=0.1	yearly=m3pvmult					
New	PVSystem.BB_263788_1_1	bus1=DEV_263885_186.3	Phases=1	kV=0.24	kVA=	5.011763792	irradiance=1	Pmpp=6.2647047403151	kvar=0	kvarlimit=	2.205176069	%cutin=0.1	%cutout=0.1	yearly=m3pvmult					
New	PVSystem.BB_263788_1_3	bus1=DEV_263885_176.3	Phases=1	kV=0.24	kVA=	4.572244404	irradiance=1	Pmpp=5.71530550523888	kvar=0	kvarlimit=	2.011787538	%cutin=0.1	%cutout=0.1	yearly=m3pvmult					
New	PVSystem.BB_263789_1_1	bus1=DEV_263879_148.3	Phases=1	kV=0.24	kVA=	6.259907025	irradiance=1	Pmpp=7.82488378113802	kvar=0	kvarlimit=	2.754359091	%cutin=0.1	%cutout=0.1	yearly=m3pvmult					
New	PVSystem.BB_263789_1_4	bus1=DEV_263879_146.3	Phases=1	kV=0.24	kVA=	7.384709358	irradiance=1	Pmpp=9.23088669741255	kvar=0	kvarlimit=	3.249272117	%cutin=0.1	%cutout=0.1	yearly=m3pvmult					
New	PVSystem.BB_263789_1_6	bus1=DEV_263879_142.3	Phases=1	kV=0.24	kVA=	5.941419749	irradiance=1	Pmpp=7.4267746860687	kvar=0	kvarlimit=	2.614224689	%cutin=0.1	%cutout=0.1	yearly=m3pvmult					
New	PVSystem.BB_263789_1_7	bus1=DEV_263879_144.3	Phases=1	kV=0.24	kVA=	7.008652084	irradiance=1	Pmpp=8.76081510529049	kvar=0	kvarlimit=	3.083806917	%cutin=0.1	%cutout=0.1	yearly=m3pvmult					
New	PVSystem.BB_263789_1_10	bus1=DEV_263879_252.3	Phases=1	kV=0.24	kVA=	6.804086781	irradiance=1	Pmpp=8.50510847607048	kvar=0	kvarlimit=	2.993798184	%cutin=0.1	%cutout=0.1	yearly=m3pvmult					
New	PVSystem.BB_263789_1_11	bus1=DEV_263879_253.3	Phases=1	kV=0.24	kVA=	7.477724004	irradiance=1	Pmpp=9.34715500482539	kvar=0	kvarlimit=	3.290198562	%cutin=0.1	%cutout=0.1	yearly=m3pvmult					
New	PVSystem.BB_263789_1_12	bus1=DEV_263879_254.3	Phases=1	kV=0.24	kVA=	7.240259391	irradiance=1	Pmpp=9.05032423894841	kvar=0	kvarlimit=	3.185714132	%cutin=0.1	%cutout=0.1	yearly=m3pvmult					
New	PVSystem.BB_263793_1_2	bus1=DEV_263717_780.1	Phases=1	kV=0.24	kVA=	6.146716105	irradiance=1	Pmpp=7.68339513114408	kvar=0	kvarlimit=	2.704555086	%cutin=0.1	%cutout=0.1	yearly=m3pvmult					
New	PVSystem.BB_263793_1_7	bus1=DEV_263717_796.1	Phases=1	kV=0.24	kVA=	6.455500613	irradiance=1	Pmpp=8.06937576576461	kvar=0	kvarlimit=	2.84042027	%cutin=0.1	%cutout=0.1	yearly=m3pvmult					
New	PVSystem.BB_263793_1_8	bus1=DEV_263717_797.1	Phases=1	kV=0.24	kVA=	6.880908894	irradiance=1	Pmpp=8.60113611783099	kvar=0	kvarlimit=	3.027599913	%cutin=0.1	%cutout=0.1	yearly=m3pvmult					
New	PVSystem.BB_263793_1_9	bus1=DEV_263717_770.1	Phases=1	kV=0.24	kVA=	6.907115527	irradiance=1	Pmpp=8.63389440839161	kvar=0	kvarlimit=	3.039130832	%cutin=0.1	%cutout=0.1	yearly=m3pvmult					
New	PVSystem.BB_263793_1_10	bus1=DEV_263717_769.1	Phases=1	kV=0.24	kVA=	6.278648595	irradiance=1	Pmpp=7.84831074428266	kvar=0	kvarlimit=	2.762605382	%cutin=0.1	%cutout=0.1	yearly=m3pvmult					
New	PVSystem.BB_263795_1_2	bus1=DEV_263907_147.1	Phases=1	kV=0.24	kVA=	6.705526322	irradiance=1	Pmpp=8.38190790255623	kvar=0	kvarlimit=	2.950431582	%cutin=0.1	%cutout=0.1	yearly=m3pvmult					
New	PVSystem.BB_263795_1_4	bus1=DEV_263907_146.1	Phases=1	kV=0.24	kVA=	7.188418434	irradiance=1	Pmpp=8.98552304257307	kvar=0	kvarlimit=	3.162904111	%cutin=0.1	%cutout=0.1	yearly=m3pvmult					
New	PVSystem.BB_263795_1_7	bus1=DEV_263907_144.1	Phases=1	kV=0.24	kVA=	7.455978249	irradiance=1	Pmpp=9.31997281121274	kvar=0	kvarlimit=	3.28063043	%cutin=0.1	%cutout=0.1	yearly=m3pvmult					
New	PVSystem.BB_263795_1_10	bus1=DEV_263907_252.1	Phases=1	kV=0.24	kVA=	6.901946761	irradiance=1	Pmpp=8.62743345108103	kvar=0	kvarlimit=	3.036856575	%cutin=0.1	%cutout=0.1	yearly=m3pvmult					
New	PVSystem.BB_263796_1_3	bus1=DEV_263720_132.2	Phases=1	kV=0.24	kVA=	7.99068984	irradiance=1	Pmpp=9.98836229983122	kvar=0	kvarlimit=	3.51590353	%cutin=0.1	%cutout=0.1	yearly=m3pvmult					
New	PVSystem.BB_263797_1_1	bus1=DEV_263652_72.2	Phases=1	kV=0.24	kVA=	6.960459176	irradiance=1	Pmpp=8.70057397057893	kvar=0	kvarlimit=	3.062602038	%cutin=0.1	%cutout=0.1	yearly=m3pvmult					
New	PVSystem.BB_263798_1_7	bus1=DEV_263901_209.2	Phases=1	kV=0.24	kVA=	5.174453478	irradiance=1	Pmpp=6.4680668471484	kvar=0	kvarlimit=	2.27675953	%cutin=0.1	%cutout=0.1	yearly=m3pvmult					
New	PVSystem.BB_263800_1_3	bus1=DEV_263899_145.2	Phases=1	kV=0.24	kVA=	6.231359916	irradiance=1	Pmpp=7.78919989508931	kvar=0	kvarlimit=	2.741798363	%cutin=0.1	%cutout=0.1	yearly=m3pvmult					
New	PVSystem.BB_263801_1_7	bus1=DEV_263690_128.3	Phases=1	kV=0.24	kVA=	6.586927903	irradiance=1	Pmpp=8.23365987817073	kvar=0	kvarlimit=	2.898248277	%cutin=0.1	%cutout=0.1	yearly=m3pvmult					
New	PVSystem.BB_263802_1_7	bus1=DEV_263871_137.3	Phases=1	kV=0.24	kVA=	4.223281555	irradiance=1	Pmpp=5.27910194381275	kvar=0	kvarlimit=	1.858243884	%cutin=0.1	%cutout=0.1	yearly=m3pvmult					
New	PVSystem.BB_263802_1_8	bus1=DEV_263871_138.3	Phases=1	kV=0.24	kVA=	4.723882205	irradiance=1	Pmpp=5.90485275576149	kvar=0	kvarlimit=	2.07850817	%cutin=0.1	%cutout=0.1	yearly=m3pvmult					
New	PVSystem.BB_263803_1_1	bus1=DEV_263680_18.3	Phases=1	kV=0.24	kVA=	6.117082596	irradiance=1	Pmpp=7.64635324484881	kvar=0	kvarlimit=	2.691516342	%cutin=0.1	%cutout=0.1	yearly=m3pvmult					
New	PVSystem.BB_263803_1_4	bus1=DEV_263680_30.3	Phases=1	kV=0.24	kVA=	5.896529788	irradiance=1	Pmpp=7.37066223528095	kvar=0	kvarlimit=	2.594473107	%cutin=0.1	%cutout=0.1	yearly=m3pvmult					
New	PVSystem.BB_263803_1_5	bus1=DEV_263680_29.3	Phases=1	kV=0.24	kVA=	6.051015414	irradiance=1	Pmpp=7.56376926769755	kvar=0	kvarlimit=	2.662446782	%cutin=0.1	%cutout=0.1	yearly=m3pvmult					
New	PVSystem.BB_263803_1_8	bus1=DEV_263680_22.3	Phases=1	kV=0.24	kVA=	5.934874044	irradiance=1	Pmpp=7.41859255475786	kvar=0	kvarlimit=	2.611344579	%cutin=0.1	%cutout=0.1	yearly=m3pvmult					
New	PVSystem.BB_263803_1_9	bus1=DEV_263680_27.3	Phases=1	kV=0.24	kVA=	5.20886212	irradiance=1	Pmpp=6.51107764954763	kvar=0	kvarlimit=	2.291899333	%cutin=0.1	%cutout=0.1	yearly=m3pvmult					
New	PVSystem.BB_263803_1_10	bus1=DEV_263680_23.3	Phases=1	kV=0.24	kVA=	5.058503596	irradiance=1	Pmpp=6.32312949515292	kvar=0	kvarlimit=	2.225741582	%cutin=0.1	%cutout=0.1	yearly=m3pvmult					
New	PVSystem.BB_263803_1_11	bus1=DEV_263680_24.3	Phases=1	kV=0.24	kVA=	5.605240983	irradiance=1	Pmpp=7.00655122847222	kvar=0	kvarlimit=	2.466306032	%cutin=0.1	%cutout=0.1	yearly=m3pvmult					
New	PVSystem.BB_263803_1_13	bus1=DEV_263680_26.3	Phases=1	kV=0.24	kVA=	6.088104531	irradiance=1	Pmpp=7.61013066319864	kvar=0	kvarlimit=	2.678765993	%cutin=0.1	%cutout=0.1	yearly=m3pvmult					
New	PVSystem.BB_263804_1_2	bus1=DEV_263873_147.3	Phases=1	kV=0.24	kVA=	4.672181117	irradiance=1	Pmpp=5.8402263968407	kvar=0	kvarlimit=	2.055759692	%cutin=0.1	%cutout=0.1	yearly=m3pvmult					
New	PVSystem.BB_263804_1_7	bus1=DEV_263873_144.3	Phases=1	kV=0.24	kVA=	4.75285544	irradiance=1	Pmpp=5.94106929946347	kvar=0	kvarlimit=	2.091256393	%cutin=0.1	%cutout=0.1	yearly=m3pvmult					
New	PVSystem.BB_263804_1_8	bus1=DEV_263873_143.3	Phases=1	kV=0.24	kVA=	4.82720476	irradiance=1	Pmpp=6.0340059497386	kvar=0	kvarlimit=	2.123970094	%cutin=0.1	%cutout=0.1	yearly=m3pvmult					
New	PVSystem.BB_263804_1_12	bus1=DEV_263873_254.3	Phases=1	kV=0.24	kVA=	4.774016354	irradiance=1	Pmpp=5.96752044209576	kvar=0	kvarlimit=	2.100567196	%cutin=0.1	%cutout=0.1	yearly=m3pvmult					
New	PVSystem.BB_263805_1_3	bus1=DEV_263875_132.3	Phases=1	kV=0.24	kVA=	6.752727812	irradiance=1	Pmpp=8.44090976502861	kvar=0	kvarlimit=	2.971200237	%cutin=0.1	%cutout=0.1	yearly=m3pvmult					
New	PVSystem.BB_263805_1_6	bus1=DEV_263875_129.3	Phases=1	kV=0.24	kVA=	7.355281954	irradiance=1	Pmpp=9.19410244232231	kvar=0	kvarlimit=	3.23632406	%cutin=0.1	%cutout=0.1	yearly=m3pvmult					
New	PVSystem.BB_263805_1_9	bus1=DEV_263875_104.3	Phases=1	kV=0.24	kVA=	7.066084785	irradiance=1	Pmpp=8.83260598091468	kvar=0	kvarlimit=	3.109077305	%cutin=0.1	%cutout=0.1	yearly=m3pvmult					
New	PVSystem.BB_263806_1_2	bus1=DEV_263865_246.3	Phases=1	kV=0.24	kVA=	5.880460728	irradiance=1	Pmpp=7.35057590943587	kvar=0	kvarlimit=	2.58740272	%cutin=0.1	%cutout=0.1	yearly=m3pvmult					
New	PVSystem.BB_263806_1_3	bus1=DEV_263865_132.3	Phases=1	kV=0.24	kVA=	5.984366172	irradiance=1	Pmpp=7.48045771529502	kvar=0	kvarlimit=	2.633121116	%cutin=0.1	%cutout=0.1	yearly=m3pvmult					
New	PVSystem.BB_263806_1_4	bus1=DEV_263865_131.3	Phases=1	kV=0.24	kVA=	5.383972725	irradiance=1	Pmpp=6.72996590617197	kvar=0	kvarlimit=	2.368947999	%cutin=0.1	%cutout=0.1	yearly=m3pvmult					
New	PVSystem.BB_263806_1_5	bus1=DEV_263865_130.3	Phases=1	kV=0.24	kVA=	5.39680284	irradiance=1	Pmpp=6.74600354939475	kvar=0	kvarlimit=	2.374593249	%cutin=0.1	%cutout=0.1	yearly=m3pvmult					
New	PVSystem.BB_263806_1_6	bus1=DEV_263865_129.3	Phases=1	kV=0.24	kVA=	5.241649039	irradiance=1	Pmpp=6.55206129935045	kvar=0	kvarlimit=	2.306325577	%cutin=0.1	%cutout=0.1	yearly=m3pvmult					
New	PVSystem.BB_263806_1_8	bus1=DEV_263865_127.3	Phases=1	kV=0.24	kVA=	5.903293416	irradiance=1	Pmpp=7.37911677017263	kvar=0	kvarlimit=	2.597449103	%cutin=0.1	%cutout=0.1	yearly=m3pvmult					
New	PVSystem.BB_263807_1_1	bus1=DEV_263867_148.3	Phases=1	kV=0.24	kVA=	5.310009323	irradiance=1	Pmpp=6.63751165358137	kvar=0	kvarlimit=	2.336404102	%cutin=0.1	%cutout=0.1	yearly=m3pvmult					
New	PVSystem.BB_263807_1_2	bus1=DEV_263867_147.3	Phases=1	kV=0.24	kVA=	4.34015343	irradiance=1	Pmpp=5.4251917875113	kvar=0	kvarlimit=	1.909667509	%cutin=0.1	%cutout=0.1	yearly=m3pvmult					
New	PVSystem.BB_263807_1_5	bus1=DEV_263867_141.3	Phases=1	kV=0.24	kVA=	4.436992007	irradiance=1	Pmpp=5.54624000897334	kvar=0	kvarlimit=	1.952276483	%cutin=0.1	%cutout=0.1	yearly=m3pvmult					
New	PVSystem.BB_263807_1_10	bus1=DEV_263867_252.3	Phases=1	kV=0.24	kVA=	5.057843321	irradiance=1	Pmpp=6.32230415137428	kvar=0	kvarlimit=	2.225451061	%cutin=0.1	%cutout=0.1	yearly=m3pvmult					
New	PVSystem.BB_263808_1_1	bus1=DEV_263863_247.3	Phases=1	kV=0.24	kVA=	7.841981695	irradiance=1	Pmpp=9.80247711929832	kvar=0	kvarlimit=	3.450471946	%cutin=0.1	%cutout=0.1	yearly=m3pvmult					
New	PVSystem.BB_263808_1_4	bus1=DEV_263863_249.3	Phases=1	kV=0.24	kVA=	6.246208669	irradiance=1	Pmpp=7.80776083637501	kvar=0	kvarlimit=	2.748331814	%cutin=0.1	%cutout=0.1	yearly=m3pvmult					
New	PVSystem.BB_263808_1_8	bus1=DEV_263863_138.3	Phases=1	kV=0.24	kVA=	6.370172724	irradiance=1	Pmpp=7.96271590495795	kvar=0	kvarlimit=	2.802875999	%cutin=0.1	%cutout=0.1	yearly=m3pvmult					
New	PVSystem.BB_263808_1_9	bus1=DEV_263863_136.3	Phases=1	kV=0.24	kVA=	7.173851728	irradiance=1	Pmpp=8.96731466033303	kvar=0	kvarlimit=	3.15649476	%cutin=0.1	%cutout=0.1	yearly=m3pvmult					
New	PVSystem.BB_263809_1_1	bus1=DEV_263869_245.3	Phases=1	kV=0.24	kVA=	6.497999438	irradiance=1	Pmpp=8.1224992969011	kvar=0	kvarlimit=	2.859119753	%cutin=0.1	%cutout=0.1	yearly=m3pvmult					
New	PVSystem.BB_263809_1_2	bus1=DEV_263869_246.3	Phases=1	kV=0.24	kVA=	6.377362936	irradiance=1	Pmpp=7.97170366966366	kvar=0	kvarlimit=	2.806039692	%cutin=0.1	%cutout=0.1	yearly=m3pvmult					
New	PVSystem.BB_263809_1_6	bus1=DEV_263869_129.3	Phases=1	kV=0.24	kVA=	5.33558485	irradiance=1	Pmpp=6.6694810619424	kvar=0	kvarlimit=	2.347657334	%cutin=0.1	%cutout=0.1	yearly=m3pvmult					
New	PVSystem.BB_263809_1_8	bus1=DEV_263869_127.3	Phases=1	kV=0.24	kVA=	6.225918328	irradiance=1	Pmpp=7.78239790991416	kvar=0	kvarlimit=	2.739404064	%cutin=0.1	%cutout=0.1	yearly=m3pvmult					
New	PVSystem.BB_263817_1_1	bus1=DEV_263621_245.1	Phases=1	kV=0.24	kVA=	3.926030299	irradiance=1	Pmpp=4.90753787323286	kvar=0	kvarlimit=	1.727453331	%cutin=0.1	%cutout=0.1	yearly=m3pvmult					
New	PVSystem.BB_263817_1_3	bus1=DEV_263621_132.1	Phases=1	kV=0.24	kVA=	3.968069495	irradiance=1	Pmpp=4.96008686836521	kvar=0	kvarlimit=	1.745950578	%cutin=0.1	%cutout=0.1	yearly=m3pvmult					
New	PVSystem.BB_263817_1_6	bus1=DEV_263621_129.1	Phases=1	kV=0.24	kVA=	4.272947856	irradiance=1	Pmpp=5.34118481951434	kvar=0	kvarlimit=	1.880097056	%cutin=0.1	%cutout=0.1	yearly=m3pvmult					
New	PVSystem.BB_263817_1_7	bus1=DEV_263621_128.1	Phases=1	kV=0.24	kVA=	4.032984668	irradiance=1	Pmpp=5.04123083500645	kvar=0	kvarlimit=	1.774513254	%cutin=0.1	%cutout=0.1	yearly=m3pvmult					
New	PVSystem.BB_263817_1_8	bus1=DEV_263621_127.1	Phases=1	kV=0.24	kVA=	4.136952416	irradiance=1	Pmpp=5.1711905205769	kvar=0	kvarlimit=	1.820259063	%cutin=0.1	%cutout=0.1	yearly=m3pvmult					
New	PVSystem.BB_263888_1_1	bus1=DEV_263887_186.2	Phases=1	kV=0.24	kVA=	4.605948705	irradiance=1	Pmpp=5.75743588181391	kvar=0	kvarlimit=	2.02661743	%cutin=0.1	%cutout=0.1	yearly=m3pvmult					
New	PVSystem.BB_263888_1_6	bus1=DEV_263887_47.2	Phases=1	kV=0.24	kVA=	3.900048059	irradiance=1	Pmpp=4.87506007322246	kvar=0	kvarlimit=	1.716021146	%cutin=0.1	%cutout=0.1	yearly=m3pvmult					
New	PVSystem.BB_264037_1_4	bus1=DEV_264038_1564.2	Phases=1	kV=0.24	kVA=	8.960543955	irradiance=1	Pmpp=11.2006799438748	kvar=0	kvarlimit=	3.94263934	%cutin=0.1	%cutout=0.1	yearly=m3pvmult					
New	PVSystem.BB_264132_1_5	bus1=DEV_264131_1555.1	Phases=1	kV=0.24	kVA=	6.763499049	irradiance=1	Pmpp=8.45437381142996	kvar=0	kvarlimit=	2.975939582	%cutin=0.1	%cutout=0.1	yearly=m3pvmult					
New	PVSystem.BB_264132_1_6	bus1=DEV_264131_1556.1	Phases=1	kV=0.24	kVA=	5.58925517	irradiance=1	Pmpp=6.98656896198623	kvar=0	kvarlimit=	2.459272275	%cutin=0.1	%cutout=0.1	yearly=m3pvmult					
New	PVSystem.BB_264132_1_10	bus1=DEV_264131_1525.1	Phases=1	kV=0.24	kVA=	7.025456616	irradiance=1	Pmpp=8.78182077036618	kvar=0	kvarlimit=	3.091200911	%cutin=0.1	%cutout=0.1	yearly=m3pvmult					
New	PVSystem.BB_264132_1_13	bus1=DEV_264131_1578.1	Phases=1	kV=0.24	kVA=	6.311454182	irradiance=1	Pmpp=7.88931772788092	kvar=0	kvarlimit=	2.77703984	%cutin=0.1	%cutout=0.1	yearly=m3pvmult					
New	PVSystem.BB_264986_1_10	bus1=DEV_264984_1525.1	Phases=1	kV=0.24	kVA=	7.649178006	irradiance=1	Pmpp=9.56147250713606	kvar=0	kvarlimit=	3.365638323	%cutin=0.1	%cutout=0.1	yearly=m3pvmult					
New	PVSystem.BB_264986_1_11	bus1=DEV_264984_1536.1	Phases=1	kV=0.24	kVA=	8.246570127	irradiance=1	Pmpp=10.3082126582332	kvar=0	kvarlimit=	3.628490856	%cutin=0.1	%cutout=0.1	yearly=m3pvmult					
New	PVSystem.BB_51045896_1_2	bus1=DEV_51045898_12.1	Phases=1	kV=0.24	kVA=	13.36043217	irradiance=1	Pmpp=16.7005402123449	kvar=0	kvarlimit=	5.878590155	%cutin=0.1	%cutout=0.1	yearly=m3pvmult					
New	PVSystem.BB_51045896_1_3	bus1=DEV_51045898_15.1	Phases=1	kV=0.24	kVA=	14.8998394	irradiance=1	Pmpp=18.6247992508482	kvar=0	kvarlimit=	6.555929336	%cutin=0.1	%cutout=0.1	yearly=m3pvmult					
New	PVSystem.BB_51045964_1_1	bus1=DEV_51045966_13.3	Phases=1	kV=0.24	kVA=	7.943689229	irradiance=1	Pmpp=9.92961153606575	kvar=0	kvarlimit=	3.495223261	%cutin=0.1	%cutout=0.1	yearly=m3pvmult					
New	PVSystem.BB_51045964_1_3	bus1=DEV_51045966_15.3	Phases=1	kV=0.24	kVA=	9.583575003	irradiance=1	Pmpp=11.9794687541862	kvar=0	kvarlimit=	4.216773001	%cutin=0.1	%cutout=0.1	yearly=m3pvmult					
New	PVSystem.BB_51045964_1_8	bus1=DEV_51045966_19.3	Phases=1	kV=0.24	kVA=	9.470626074	irradiance=1	Pmpp=11.8382825927379	kvar=0	kvarlimit=	4.167075473	%cutin=0.1	%cutout=0.1	yearly=m3pvmult					
New	PVSystem.BB_51045964_1_9	bus1=DEV_51045966_20.3	Phases=1	kV=0.24	kVA=	8.382845893	irradiance=1	Pmpp=10.4785573668355	kvar=0	kvarlimit=	3.688452193	%cutin=0.1	%cutout=0.1	yearly=m3pvmult					
New	PVSystem.BB_51045964_1_10	bus1=DEV_51045966_21.3	Phases=1	kV=0.24	kVA=	8.568344266	irradiance=1	Pmpp=10.7104303329744	kvar=0	kvarlimit=	3.770071477	%cutin=0.1	%cutout=0.1	yearly=m3pvmult					
New	PVSystem.BB_51045964_1_12	bus1=DEV_51045966_23.3	Phases=1	kV=0.24	kVA=	8.128442511	irradiance=1	Pmpp=10.1605531381778	kvar=0	kvarlimit=	3.576514705	%cutin=0.1	%cutout=0.1	yearly=m3pvmult					
New	PVSystem.BB_51045964_1_14	bus1=DEV_51045966_25.3	Phases=1	kV=0.24	kVA=	9.837436215	irradiance=1	Pmpp=12.2967952681916	kvar=0	kvarlimit=	4.328471934	%cutin=0.1	%cutout=0.1	yearly=m3pvmult					
New	PVSystem.BB_51045975_1_7	bus1=DEV_51045977_18.3	Phases=1	kV=0.24	kVA=	7.984107614	irradiance=1	Pmpp=9.98013451737958	kvar=0	kvarlimit=	3.51300735	%cutin=0.1	%cutout=0.1	yearly=m3pvmult					
New	PVSystem.BB_51045975_1_9	bus1=DEV_51045977_20.3	Phases=1	kV=0.24	kVA=	7.482423236	irradiance=1	Pmpp=9.3530290446761	kvar=0	kvarlimit=	3.292266224	%cutin=0.1	%cutout=0.1	yearly=m3pvmult					
New	PVSystem.BB_51045975_1_10	bus1=DEV_51045977_21.3	Phases=1	kV=0.24	kVA=	6.848306516	irradiance=1	Pmpp=8.56038314526363	kvar=0	kvarlimit=	3.013254867	%cutin=0.1	%cutout=0.1	yearly=m3pvmult					
New	PVSystem.BB_51045982_1_1	bus1=DEV_51045984_13.3	Phases=1	kV=0.24	kVA=	11.24970285	irradiance=1	Pmpp=14.0621285574271	kvar=0	kvarlimit=	4.949869252	%cutin=0.1	%cutout=0.1	yearly=m3pvmult					
New	PVSystem.BB_51046037_1_1	bus1=DEV_51046039_13.2	Phases=1	kV=0.24	kVA=	7.42314827	irradiance=1	Pmpp=9.27893533709621	kvar=0	kvarlimit=	3.266185239	%cutin=0.1	%cutout=0.1	yearly=m3pvmult					
New	PVSystem.BB_51046037_1_7	bus1=DEV_51046039_18.2	Phases=1	kV=0.24	kVA=	7.849461285	irradiance=1	Pmpp=9.81182660604483	kvar=0	kvarlimit=	3.453762965	%cutin=0.1	%cutout=0.1	yearly=m3pvmult					
New	PVSystem.BB_51046044_1_4	bus1=DEV_51046046_14.3	Phases=1	kV=0.24	kVA=	8.22995975	irradiance=1	Pmpp=10.2874496873379	kvar=0	kvarlimit=	3.62118229	%cutin=0.1	%cutout=0.1	yearly=m3pvmult					
New	PVSystem.BB_51046044_1_7	bus1=DEV_51046046_18.3	Phases=1	kV=0.24	kVA=	7.430737112	irradiance=1	Pmpp=9.28842138981961	kvar=0	kvarlimit=	3.269524329	%cutin=0.1	%cutout=0.1	yearly=m3pvmult					
New	PVSystem.BB_51046044_1_8	bus1=DEV_51046046_19.3	Phases=1	kV=0.24	kVA=	7.203640845	irradiance=1	Pmpp=9.00455105562673	kvar=0	kvarlimit=	3.169601972	%cutin=0.1	%cutout=0.1	yearly=m3pvmult					
New	PVSystem.OH_257608_1_4	bus1=DEV_257789_14.3	Phases=1	kV=0.24	kVA=	7.362093578	irradiance=1	Pmpp=9.20261697192317	kvar=0	kvarlimit=	3.239321174	%cutin=0.1	%cutout=0.1	yearly=m3pvmult					
New	PVSystem.OH_257608_1_6	bus1=DEV_257789_17.3	Phases=1	kV=0.24	kVA=	7.79532791	irradiance=1	Pmpp=9.74415988759272	kvar=0	kvarlimit=	3.42994428	%cutin=0.1	%cutout=0.1	yearly=m3pvmult					
New	PVSystem.OH_257608_1_7	bus1=DEV_257789_18.3	Phases=1	kV=0.24	kVA=	7.816211108	irradiance=1	Pmpp=9.7702638854847	kvar=0	kvarlimit=	3.439132888	%cutin=0.1	%cutout=0.1	yearly=m3pvmult					
New	PVSystem.OH_257608_1_9	bus1=DEV_257789_20.3	Phases=1	kV=0.24	kVA=	7.415180143	irradiance=1	Pmpp=9.26897517908901	kvar=0	kvarlimit=	3.262679263	%cutin=0.1	%cutout=0.1	yearly=m3pvmult					
New	PVSystem.OH_257796_1_3	bus1=NODE_559690_154.3	Phases=1	kV=0.24	kVA=	8.012266269	irradiance=1	Pmpp=10.01533283584	kvar=0	kvarlimit=	3.525397158	%cutin=0.1	%cutout=0.1	yearly=m3pvmult					
New	PVSystem.OH_257796_1_5	bus1=NODE_559690_2.3	Phases=1	kV=0.24	kVA=	8.515797526	irradiance=1	Pmpp=10.6447469073276	kvar=0	kvarlimit=	3.746950911	%cutin=0.1	%cutout=0.1	yearly=m3pvmult					
New	PVSystem.OH_257796_1_7	bus1=NODE_559690_4.3	Phases=1	kV=0.24	kVA=	7.909947214	irradiance=1	Pmpp=9.88743401733698	kvar=0	kvarlimit=	3.480376774	%cutin=0.1	%cutout=0.1	yearly=m3pvmult					
New	PVSystem.OH_257796_1_8	bus1=NODE_559690_5.3	Phases=1	kV=0.24	kVA=	7.423664231	irradiance=1	Pmpp=9.2795802890126	kvar=0	kvarlimit=	3.266412262	%cutin=0.1	%cutout=0.1	yearly=m3pvmult					
New	PVSystem.OH_257796_1_9	bus1=NODE_559690_6.3	Phases=1	kV=0.24	kVA=	8.605843858	irradiance=1	Pmpp=10.7573048223292	kvar=0	kvarlimit=	3.786571297	%cutin=0.1	%cutout=0.1	yearly=m3pvmult					
New	PVSystem.OH_257796_1_10	bus1=NODE_559690_7.3	Phases=1	kV=0.24	kVA=	8.907627605	irradiance=1	Pmpp=11.1345345063538	kvar=0	kvarlimit=	3.919356146	%cutin=0.1	%cutout=0.1	yearly=m3pvmult					
New	PVSystem.OH_257796_1_12	bus1=NODE_559690_150.3	Phases=1	kV=0.24	kVA=	6.954741508	irradiance=1	Pmpp=8.69342688491914	kvar=0	kvarlimit=	3.060086263	%cutin=0.1	%cutout=0.1	yearly=m3pvmult					
New	PVSystem.OH_257798_1_4	bus1=DEV_257790_14.3	Phases=1	kV=0.24	kVA=	7.895568266	irradiance=1	Pmpp=9.86946033303584	kvar=0	kvarlimit=	3.474050037	%cutin=0.1	%cutout=0.1	yearly=m3pvmult					
New	PVSystem.OH_257798_1_6	bus1=DEV_257790_17.3	Phases=1	kV=0.24	kVA=	7.726385189	irradiance=1	Pmpp=9.6579814863395	kvar=0	kvarlimit=	3.399609483	%cutin=0.1	%cutout=0.1	yearly=m3pvmult					
New	PVSystem.OH_257798_1_7	bus1=DEV_257790_18.3	Phases=1	kV=0.24	kVA=	7.134380962	irradiance=1	Pmpp=8.91797620190427	kvar=0	kvarlimit=	3.139127623	%cutin=0.1	%cutout=0.1	yearly=m3pvmult					
New	PVSystem.OH_257798_1_9	bus1=DEV_257790_20.3	Phases=1	kV=0.24	kVA=	7.546092805	irradiance=1	Pmpp=9.43261600640493	kvar=0	kvarlimit=	3.320280834	%cutin=0.1	%cutout=0.1	yearly=m3pvmult					
...